@<TRIPOS>MOLECULE
PRE
 24 24 0 0 0
SMALL
GASTEIGER

@<TRIPOS>ATOM
      1 C          -0.5230    0.2450    0.6960 C.3     1  UNL1        0.0533
      2 C          -0.3790    1.1740    1.8640 C.2     1  UNL1       -0.0696
      3 C           0.4110    0.9290    2.8640 C.2     1  UNL1       -0.0548
      4 C           1.2570   -0.3040    2.9480 C.3     1  UNL1        0.0916
      5 O           2.5980    0.0200    2.5760 O.3     1  UNL1       -0.3837
      6 C           0.7410   -1.3780    2.0390 C.2     1  UNL1       -0.0548
      7 C          -0.0490   -1.1340    1.0390 C.2     1  UNL1       -0.0696
      8 C          -1.9730    0.1820    0.2910 C.2     1  UNL1        0.0558
      9 O          -2.3050    0.5160   -0.8210 O.co2   1  UNL1       -0.5486
     10 O          -2.8960   -0.2450    1.1670 O.co2   1  UNL1       -0.5486
     11 C           0.3010    0.7820   -0.4750 C.3     1  UNL1        0.0293
     12 C           0.1610   -0.1450   -1.6540 C.2     1  UNL1        0.1797
     13 O          -0.5260   -1.1340   -1.5660 O.2     1  UNL1       -0.2908
     14 C           0.8720    0.1560   -2.9290 C.2     1  UNL1        0.1071
     15 O           1.5630    1.1490   -3.0170 O.co2   1  UNL1       -0.5417
     16 O           0.7480   -0.6720   -3.9820 O.co2   1  UNL1       -0.5417
     17 H          -0.9317    2.0455    1.8731 H       1  UNL1        0.0582
     18 H           0.4583    1.6135    3.6348 H       1  UNL1        0.0598
     19 H           1.2250   -0.6673    3.9539 H       1  UNL1        0.0682
     20 H           2.6101    0.3474    1.6630 H       1  UNL1        0.2106
     21 H           1.0263   -2.3538    2.2161 H       1  UNL1        0.0598
     22 H          -0.3644   -1.9241    0.4547 H       1  UNL1        0.0582
     23 H           1.3303    0.8423   -0.1889 H       1  UNL1        0.0361
     24 H          -0.0523    1.7558   -0.7429 H       1  UNL1        0.0361
@<TRIPOS>BOND
     1     1     2    1
     2     1     7    1
     3     1     8    1
     4     1    11    1
     5     2     3    2
     6     3     4    1
     7     4     5    1
     8     4     6    1
     9     6     7    2
    10     8     9   ar
    11     8    10   ar
    12    11    12    1
    13    12    13    2
    14    12    14    1
    15    14    15   ar
    16    14    16   ar
    17     2    17    1
    18     3    18    1
    19     4    19    1
    20     5    20    1
    21     6    21    1
    22     7    22    1
    23    11    23    1
    24    11    24    1
