PRE
  Mrv15b2301232518292D          

 16 16  0  0  0  0            999 V2000
    0.4303   -0.1339    0.0000 C   0  0  1  0  0  0  0  0  0  0  0  0
    1.1447   -0.5464    0.0000 C   0  0  0  0  0  0  0  0  0  0  0  0
    1.1447   -1.3714    0.0000 C   0  0  0  0  0  0  0  0  0  0  0  0
    0.4303   -1.7839    0.0000 C   0  0  2  0  0  0  0  0  0  0  0  0
    0.4303   -2.6089    0.0000 O   0  0  0  0  0  0  0  0  0  0  0  0
   -0.2842   -1.3714    0.0000 C   0  0  0  0  0  0  0  0  0  0  0  0
   -0.2842   -0.5464    0.0000 C   0  0  0  0  0  0  0  0  0  0  0  0
    0.8176    0.5946    0.0000 C   0  0  0  0  0  0  0  0  0  0  0  0
    0.3804    1.2942    0.0000 O   0  5  0  0  0  0  0  0  0  0  0  0
    1.6421    0.6234    0.0000 O   0  5  0  0  0  0  0  0  0  0  0  0
    0.0429    0.5946    0.0000 C   0  0  0  0  0  0  0  0  0  0  0  0
   -0.7816    0.6234    0.0000 C   0  0  0  0  0  0  0  0  0  0  0  0
   -1.2187   -0.0763    0.0000 O   0  0  0  0  0  0  0  0  0  0  0  0
   -1.1689    1.3518    0.0000 C   0  0  0  0  0  0  0  0  0  0  0  0
   -1.9934    1.3806    0.0000 O   0  5  0  0  0  0  0  0  0  0  0  0
   -0.7317    2.0514    0.0000 O   0  5  0  0  0  0  0  0  0  0  0  0
  1  2  1  0  0  0  0
  1  7  1  0  0  0  0
  1  8  1  1  0  0  0
  1 11  1  6  0  0  0
  2  3  2  0  0  0  0
  3  4  1  0  0  0  0
  4  5  1  6  0  0  0
  4  6  1  0  0  0  0
  6  7  2  0  0  0  0
  8  9  4  0  0  0  0
  8 10  4  0  0  0  0
 11 12  1  0  0  0  0
 12 13  2  0  0  0  0
 12 14  1  0  0  0  0
 14 15  4  0  0  0  0
 14 16  4  0  0  0  0
M  CHG  4   9  -1  10  -1  15  -1  16  -1
M  END
