PRE
 OpenBabel01232518293D

 24 24  0  0  1  0  0  0  0  0999 V2000
   -0.5230    0.2450    0.6960 C   0  0  1  0  0  0  0  0  0  0  0  0
   -0.3790    1.1740    1.8640 C   0  0  0  0  0  0  0  0  0  0  0  0
    0.4110    0.9290    2.8640 C   0  0  0  0  0  0  0  0  0  0  0  0
    1.2570   -0.3040    2.9480 C   0  0  2  0  0  0  0  0  0  0  0  0
    2.5980    0.0200    2.5760 O   0  0  0  0  0  0  0  0  0  0  0  0
    0.7410   -1.3780    2.0390 C   0  0  0  0  0  0  0  0  0  0  0  0
   -0.0490   -1.1340    1.0390 C   0  0  0  0  0  0  0  0  0  0  0  0
   -1.9730    0.1820    0.2910 C   0  0  0  0  0  0  0  0  0  0  0  0
   -2.3050    0.5160   -0.8210 O   0  0  0  0  0  0  0  0  0  0  0  0
   -2.8960   -0.2450    1.1670 O   0  5  0  0  0  0  0  0  0  0  0  0
    0.3010    0.7820   -0.4750 C   0  0  0  0  0  0  0  0  0  0  0  0
    0.1610   -0.1450   -1.6540 C   0  0  0  0  0  0  0  0  0  0  0  0
   -0.5260   -1.1340   -1.5660 O   0  0  0  0  0  0  0  0  0  0  0  0
    0.8720    0.1560   -2.9290 C   0  0  0  0  0  0  0  0  0  0  0  0
    1.5630    1.1490   -3.0170 O   0  0  0  0  0  0  0  0  0  0  0  0
    0.7480   -0.6720   -3.9820 O   0  5  0  0  0  0  0  0  0  0  0  0
   -0.9317    2.0455    1.8731 H   0  0  0  0  0  0  0  0  0  0  0  0
    0.4583    1.6135    3.6348 H   0  0  0  0  0  0  0  0  0  0  0  0
    1.2250   -0.6673    3.9539 H   0  0  0  0  0  0  0  0  0  0  0  0
    2.6101    0.3474    1.6630 H   0  0  0  0  0  0  0  0  0  0  0  0
    1.0263   -2.3538    2.2161 H   0  0  0  0  0  0  0  0  0  0  0  0
   -0.3644   -1.9241    0.4547 H   0  0  0  0  0  0  0  0  0  0  0  0
    1.3303    0.8423   -0.1889 H   0  0  0  0  0  0  0  0  0  0  0  0
   -0.0523    1.7558   -0.7429 H   0  0  0  0  0  0  0  0  0  0  0  0
  1  2  1  0  0  0  0
  1  7  1  0  0  0  0
  1  8  1  6  0  0  0
  1 11  1  0  0  0  0
  2  3  2  0  0  0  0
  2 17  1  0  0  0  0
  3  4  1  0  0  0  0
  3 18  1  0  0  0  0
  4  5  1  0  0  0  0
  4  6  1  0  0  0  0
  4 19  1  1  0  0  0
  5 20  1  0  0  0  0
  6  7  2  0  0  0  0
  6 21  1  0  0  0  0
  7 22  1  0  0  0  0
  8  9  2  0  0  0  0
  8 10  1  0  0  0  0
 11 12  1  0  0  0  0
 11 23  1  0  0  0  0
 11 24  1  0  0  0  0
 12 13  2  0  0  0  0
 12 14  1  0  0  0  0
 14 15  2  0  0  0  0
 14 16  1  0  0  0  0
M  CHG  2  10  -1  16  -1
M  END
$$$$
